<?xml version="1.0" encoding="UTF-8"?>

<!-- generated on 2024-07-10 14:32:49 by Eclipse SUMO netedit Version 1.19.0
-->

<routes xmlns:xsi="http://www.w3.org/2001/XMLSchema-instance" xsi:noNamespaceSchemaLocation="http://sumo.dlr.de/xsd/routes_file.xsd">
    <!-- VTypes -->
    <vType id="veh_passenger" vClass="passenger"/>
    <!-- Vehicles, persons and containers (sorted by depart) -->
    <flow id="f_0" begin="0.00" from="464717802" to="24203041#0" vehsPerHour="420.02100105005251862167"/>
    <flow id="f_1" begin="0.00" from="464717802" to="-660942467#1" vehsPerHour="389.99025024374390113735"/>
    <flow id="f_2" begin="0.00" from="-550339483" to="-660942464" vehsPerHour="1020.11901388495323317329"/>
    <flow id="f_3" begin="0.00" from="-550339483" to="-660942467#1" vehsPerHour="389.99025024374390113735"/>
    <flow id="f_4" begin="0.00" from="464717810#0" to="-660942464" vehsPerHour="420.02100105005251862167"/>
    <flow id="f_5" begin="0.00" from="464717810#0" to="24203041#1" vehsPerHour="389.99025024374390113735"/>
</routes>
